data/casedata/data_init/aus-data/AU14GenModelData_Ver04/LF_Case06_R4_S.raw
0,   100.00, 29, 0, 1,  50.00     / PSS(R)E 29 RAW created by rawd29  MON, FEB 17 2014  18:49
LF_CASE06_R3_S  14-GEN SIMPLIFIED MODEL OF 4-STATE SYSTEM.
LIGHT LOAD#2 AREA4->AREA2->AREA3->AREA5 0-0-0 MW
  101,'1_HPSGEN',  15.0000,2,     0.000,     0.000,   1,   1,1.00000, -19.5127,   1
  102,'1_HPS330', 330.0000,1,     0.000,     0.000,   1,   1,1.03679, -19.5127,   1
  201,'2_BPSGEN',  20.0000,2,     0.000,     0.000,   2,   1,1.00000,   4.4291,   1
  202,'2_EPSGEN',  20.0000,2,     0.000,     0.000,   2,   1,1.00000,   1.9815,   1
  203,'2_VPSGEN',  20.0000,2,     0.000,     0.000,   2,   1,1.00000,   1.4392,   1
  204,'2_MPSGEN',  20.0000,3,     0.000,     0.000,   2,   1,1.00000,   0.0000,   1
  205,'2_ASV330', 330.0000,2,     0.000,     0.000,   2,   1,1.04500,  -8.2900,   1
  206,'2_BPS330', 330.0000,1,     0.000,     0.000,   2,   1,1.01211,  -3.2793,   1
  207,'2_N__330', 330.0000,1,     0.000,     0.000,   2,   1,0.99682,  -7.9155,   1
  208,'2_VPS330', 330.0000,1,     0.000,     0.000,   2,   1,1.00038,  -7.2687,   1
  209,'2_EPS330', 330.0000,1,     0.000,     0.000,   2,   1,1.00230,  -6.1947,   1
  210,'2_EPS500', 500.0000,1,     0.000,     0.000,   2,   1,1.03959,  -8.5054,   1
  211,'2_SN_330', 330.0000,1,     0.000,     0.000,   2,   1,1.00935, -12.9296,   1
  212,'2_SW_330', 330.0000,1,     0.000,   400.000,   2,   1,1.01900, -13.3482,   1
  213,'2_K__500', 500.0000,1,     0.000,     0.000,   2,   1,1.03980, -10.9485,   1
  214,'2_K__330', 330.0000,1,     0.000,     0.000,   2,   1,1.03367, -13.2379,   1
  215,'2_MPS330', 330.0000,1,     0.000,     0.000,   2,   1,1.01172,  -6.6853,   1
  216,'2_SS_330', 330.0000,1,     0.000,   300.000,   2,   1,1.03186, -15.1688,   1
  217,'2_YC_330', 330.0000,1,     0.000,     0.000,   2,   1,1.03300, -17.1196,   1
  301,'3_LPSGEN',  20.0000,2,     0.000,     0.000,   3,   1,1.00000,   0.4853,   1
  302,'3_YPSGEN',  20.0000,2,     0.000,     0.000,   3,   1,1.00000,  -7.7018,   1
  303,'3_LPS500', 500.0000,1,     0.000,     0.000,   3,   1,1.00644,  -7.0510,   1
  304,'3_R__500', 500.0000,1,     0.000,     0.000,   3,   1,1.00801, -15.8282,   1
  305,'3_SM_500', 500.0000,1,     0.000,     0.000,   3,   1,1.01969, -16.9411,   1
  306,'3_K__500', 500.0000,1,     0.000,     0.000,   3,   1,1.02213, -18.3791,   1
  307,'3_M__500', 500.0000,1,     0.000,     0.000,   3,   1,1.02473, -18.3659,   1
  308,'3_H__500', 500.0000,1,     0.000,     0.000,   3,   1,1.05011, -23.8883,   1
  309,'3_D__330', 330.0000,1,     0.000,     0.000,   3,   1,1.04374, -19.5631,   1
  310,'3_SS_330', 330.0000,1,     0.000,     0.000,   3,   1,1.01015, -16.5603,   1
  311,'3_SM_330', 330.0000,1,     0.000,     0.000,   3,   1,1.04347, -17.8534,   1
  312,'3_YPS220', 220.0000,1,     0.000,     0.000,   3,   1,1.01111, -15.2509,   1
  313,'3_RSV220', 220.0000,2,     0.000,     0.000,   3,   1,1.01500, -21.1651,   1
  314,'3_SM_220', 220.0000,1,     0.000,     0.000,   3,   1,1.01714, -20.2740,   1
  315,'3_H__275', 275.0000,1,     0.000,     0.000,   3,   1,1.04480, -23.8910,   1
  401,'4_TPSGEN',  20.0000,2,     0.000,     0.000,   4,   1,1.00000,  -0.8052,   1
  402,'4_CPSGEN',  20.0000,2,     0.000,     0.000,   4,   1,1.00000,  16.4119,   1
  403,'4_SPSGEN',  20.0000,2,     0.000,     0.000,   4,   1,1.00000,  14.9049,   1
  404,'4_GPSGEN',  20.0000,2,     0.000,     0.000,   4,   1,1.00000,   9.4230,   1
  405,'4_GPS275', 275.0000,1,     0.000,     0.000,   4,   1,1.00581,   2.2868,   1
  406,'4_N__275', 275.0000,1,     0.000,     0.000,   4,   1,0.99822,   5.7849,   1
  407,'4_SPS275', 275.0000,1,     0.000,     0.000,   4,   1,0.99977,   7.5238,   1
  408,'4_CPS275', 275.0000,1,     0.000,     0.000,   4,   1,1.00708,   8.5531,   1
  409,'4_W__275', 275.0000,1,     0.000,    60.000,   4,   1,1.02927,  -8.7525,   1
  410,'4_TPS275', 275.0000,1,     0.000,     0.000,   4,   1,1.00824,  -7.6118,   1
  411,'4_SP_275', 275.0000,1,     0.000,    30.000,   4,   1,1.00496, -13.9715,   1
  412,'4_BW_275', 275.0000,2,     0.000,     0.000,   4,   1,1.00000, -14.1984,   1
  413,'4_BR_275', 275.0000,1,     0.000,     0.000,   4,   1,1.04690,  -7.9040,   1
  414,'4_BR_330', 330.0000,1,     0.000,   -30.000,   4,   1,1.01942,  -7.9158,   1
  415,'4_BU_330', 330.0000,1,     0.000,   -60.000,   4,   1,1.03304,  -8.0342,   1
  416,'4_DU_330', 330.0000,1,     0.000,   -90.000,   4,   1,1.04575,  -8.1927,   1
  501,'5_NPSGEN',  20.0000,2,     0.000,     0.000,   5,   1,1.00000,  -8.4966,   1
  502,'5_TPSGEN',  15.0000,2,     0.000,     0.000,   5,   1,1.00000,  -5.7234,   1
  503,'5_PPSGEN',  15.0000,2,     0.000,     0.000,   5,   1,1.00000,  -8.3639,   1
  504,'5_D__275', 275.0000,1,     0.000,     0.000,   5,   1,1.01653, -16.4010,   1
  505,'5_TPS275', 275.0000,1,     0.000,     0.000,   5,   1,0.99495, -13.2666,   1
  506,'5_PPS275', 275.0000,1,     0.000,     0.000,   5,   1,0.99894, -15.4048,   1
  507,'5_PSV275', 275.0000,2,     0.000,     0.000,   5,   1,1.00000, -16.1799,   1
  508,'5_CG_275', 275.0000,1,     0.000,     0.000,   5,   1,1.00133, -16.7722,   1
  509,'5_SSV275', 275.0000,2,     0.000,     0.000,   5,   1,1.03000, -23.7810,   1
 0 / END OF BUS DATA, BEGIN LOAD DATA
  102,'1 ',1,   1,   1,   270.000,    30.000,     0.000,     0.000,     0.000,     0.000,   1
  205,'1 ',1,   2,   1,   235.000,    25.000,     0.000,     0.000,     0.000,     0.000,   1
  206,'1 ',1,   2,   1,    80.000,    10.000,     0.000,     0.000,     0.000,     0.000,   1
  207,'1 ',1,   2,   1,  1110.000,   120.000,     0.000,     0.000,     0.000,     0.000,   1
  208,'1 ',1,   2,   1,   125.000,    15.000,     0.000,     0.000,     0.000,     0.000,   1
  211,'1 ',1,   2,   1,  1035.000,   110.000,     0.000,     0.000,     0.000,     0.000,   1
  212,'1 ',1,   2,   1,  1000.000,   110.000,     0.000,     0.000,     0.000,     0.000,   1
  215,'1 ',1,   2,   1,   290.000,    30.000,     0.000,     0.000,     0.000,     0.000,   1
  216,'1 ',1,   2,   1,  1105.000,   120.000,     0.000,     0.000,     0.000,     0.000,   1
  217,'1 ',1,   2,   1,   750.000,    80.000,     0.000,     0.000,     0.000,     0.000,   1
  306,'1 ',1,   3,   1,   900.000,    90.000,     0.000,     0.000,     0.000,     0.000,   1
  307,'1 ',1,   3,   1,   470.000,    50.000,     0.000,     0.000,     0.000,     0.000,   1
  308,'1 ',1,   3,   1,   620.000,   100.000,     0.000,     0.000,     0.000,     0.000,   1
  309,'1 ',1,   3,   1,   140.000,    15.000,     0.000,     0.000,     0.000,     0.000,   1
  312,'1 ',1,   3,   1,    92.000,    10.000,     0.000,     0.000,     0.000,     0.000,   1
  313,'1 ',1,   3,   1,  1625.000,   165.000,     0.000,     0.000,     0.000,     0.000,   1
  314,'1 ',1,   3,   1,   180.000,    20.000,     0.000,     0.000,     0.000,     0.000,   1
  405,'1 ',1,   4,   1,   730.000,    75.000,     0.000,     0.000,     0.000,     0.000,   1
  406,'1 ',1,   4,   1,   540.000,    55.000,     0.000,     0.000,     0.000,     0.000,   1
  407,'1 ',1,   4,   1,     0.000,     0.000,     0.000,     0.000,     0.000,     0.000,   1
  408,'1 ',1,   4,   1,   110.000,    10.000,     0.000,     0.000,     0.000,     0.000,   1
  409,'1 ',1,   4,   1,   190.000,    20.000,     0.000,     0.000,     0.000,     0.000,   1
  410,'1 ',1,   4,   1,   390.000,    40.000,     0.000,     0.000,     0.000,     0.000,   1
  411,'1 ',1,   4,   1,   420.000,    45.000,     0.000,     0.000,     0.000,     0.000,   1
  412,'1 ',1,   4,   1,   922.000,   100.000,     0.000,     0.000,     0.000,     0.000,   1
  504,'1 ',1,   5,   1,   170.000,    20.000,     0.000,     0.000,     0.000,     0.000,   1
  507,'1 ',1,   5,   1,   565.000,    65.000,     0.000,     0.000,     0.000,     0.000,   1
  508,'1 ',1,   5,   1,   450.000,    50.000,     0.000,     0.000,     0.000,     0.000,   1
  509,'1 ',1,   5,   1,   117.000,    15.000,     0.000,     0.000,     0.000,     0.000,   1
 0 / END OF LOAD DATA, BEGIN GENERATOR DATA
  101,'1 ',     0.000,  -204.390,   290.564,  -290.564,1.00000,    0,   666.600,   0.00000,   0.25000,   0.00000,   0.00000,1.00000,1,  100.0,   600.000,     0.000,   1,1.0000
  201,'1 ',  1680.000,  -160.451,   871.824,  -871.824,1.00000,    0,  2000.100,   0.00000,   0.21000,   0.00000,   0.00000,1.00000,1,  100.0,  1800.000,     0.000,   1,1.0000
  202,'1 ',  1470.000,   -21.784,   726.540,  -726.540,1.00000,    0,  1666.800,   0.00000,   0.20000,   0.00000,   0.00000,1.00000,1,  100.0,  1500.000,     0.000,   1,1.0000
  203,'1 ',  1470.000,    11.211,   726.540,  -726.540,1.00000,    0,  1666.800,   0.00000,   0.25000,   0.00000,   0.00000,1.00000,1,  100.0,  1500.000,     0.000,   1,1.0000
  204,'1 ',  1457.542,  -183.682,   871.824,  -871.824,1.00000,    0,  2000.100,   0.00000,   0.21000,   0.00000,   0.00000,1.00000,1,  100.0,  1800.000,     0.000,   1,1.0000
  205,'1 ',     0.000,   -29.410,   430.000,  -220.000,1.04500,    0,   650.000,   0.00000, 999.00000,   0.00000,   0.00000,1.00000,1,  100.0,     0.000,     0.000,   1,1.0000
  301,'1 ',  3300.000,    56.332,  1743.648, -1743.648,1.00000,    0,  4000.200,   0.00000,   0.25000,   0.00000,   0.00000,1.00000,1,  100.0,  3600.000,     0.000,   1,1.0000
  302,'1 ',   786.000,   -13.893,   387.418,  -387.418,1.00000,    0,   888.800,   0.00000,   0.20000,   0.00000,   0.00000,1.00000,1,  100.0,   800.000,     0.000,   1,1.0000
  313,'1 ',     0.000,    54.172,   600.000,  -200.000,1.01500,    0,   800.000,   0.00000, 999.00000,   0.00000,   0.00000,1.00000,1,  100.0,     0.000,     0.000,   1,1.0000
  401,'1 ',  1050.000,   -97.848,   581.127,  -581.127,1.00000,    0,  1333.200,   0.00000,   0.25000,   0.00000,   0.00000,1.00000,1,  100.0,  1200.000,     0.000,   1,1.0000
  402,'1 ',   810.000,    13.997,   435.846,  -435.846,1.00000,    0,   999.900,   0.00000,   0.26000,   0.00000,   0.00000,1.00000,1,  100.0,   900.000,     0.000,   1,1.0000
  403,'1 ',   760.000,    50.356,   387.418,  -387.418,1.00000,    0,   888.800,   0.00000,   0.25000,   0.00000,   0.00000,1.00000,1,  100.0,   800.000,     0.000,   1,1.0000
  404,'1 ',   735.000,    11.638,   435.846,  -435.846,1.00000,    0,   999.900,   0.00000,   0.24000,   0.00000,   0.00000,1.00000,1,  100.0,   900.000,     0.000,   1,1.0000
  412,'1 ',     0.000,    -0.232,  1100.000,  -330.000,1.00000,    0,  1430.000,   0.00000, 999.00000,   0.00000,   0.00000,1.00000,1,  100.0,     0.000,     0.000,   1,1.0000
  501,'1 ',   270.000,   -42.195,   145.282,  -145.282,1.00000,    0,   333.300,   0.00000,   0.24000,   0.00000,   0.00000,1.00000,1,  100.0,   300.000,     0.000,   1,1.0000
  502,'1 ',   800.000,   -38.782,   600.000,  -600.000,1.00000,    0,  1000.000,   0.00000,   0.22000,   0.00000,   0.00000,1.00000,1,  100.0,   800.000,     0.000,   1,1.0000
  503,'1 ',   240.000,   -22.338,   145.326,  -145.326,1.00000,    0,   333.400,   0.00000,   0.17000,   0.00000,   0.00000,1.00000,1,  100.0,   300.000,     0.000,   1,1.0000
  507,'1 ',     0.000,    -3.745,   320.000,  -180.000,1.00000,    0,   500.000,   0.00000, 999.00000,   0.00000,   0.00000,1.00000,1,  100.0,     0.000,     0.000,   1,1.0000
  509,'1 ',     0.000,  -109.338,   400.000,  -150.000,1.03000,    0,   550.000,   0.00000, 999.00000,   0.00000,   0.00000,1.00000,1,  100.0,     0.000,     0.000,   1,1.0000
 0 / END OF GENERATOR DATA, BEGIN BRANCH DATA
  102,   217,'1 ',   0.00840,   0.06670,   0.81700,    0.00,    0.00,    0.00,  0.00000,  0.00000,  0.00000,  0.00000,1,   0.00,   1,1.0000
  102,   217,'2 ',   0.00840,   0.06670,   0.81700,    0.00,    0.00,    0.00,  0.00000,  0.00000,  0.00000,  0.00000,1,   0.00,   1,1.0000
  102,   217,'3 ',   0.00780,   0.06200,   0.76000,    0.00,    0.00,    0.00,  0.00000,  0.00000,  0.00000,  0.00000,1,   0.00,   1,1.0000
  102,   217,'4 ',   0.00780,   0.06200,   0.76000,    0.00,    0.00,    0.00,  0.00000,  0.00000,  0.00000,  0.00000,1,   0.00,   1,1.0000
  102,   309,'1 ',   0.00450,   0.03560,   0.43700,    0.00,    0.00,    0.00,  0.00000,  0.00000,  0.00000,  0.00000,1,   0.00,   1,1.0000
  102,   309,'2 ',   0.00450,   0.03560,   0.43700,    0.00,    0.00,    0.00,  0.00000,  0.00000,  0.00000,  0.00000,1,   0.00,   1,1.0000
  102,   309,'3 ',   0.01090,   0.08680,   0.76000,    0.00,    0.00,    0.00,  0.00000,  0.00000,  0.00000,  0.00000,1,   0.00,   1,1.0000
  205,   206,'1 ',   0.00960,   0.07600,   0.93100,    0.00,    0.00,    0.00,  0.00000,  0.00000,  0.00000,  0.00000,1,   0.00,   1,1.0000
  205,   206,'2 ',   0.00960,   0.07600,   0.93100,    0.00,    0.00,    0.00,  0.00000,  0.00000,  0.00000,  0.00000,1,   0.00,   1,1.0000
  205,   416,'1 ',   0.00370,   0.04600,   0.73000,    0.00,    0.00,    0.00,  0.00000,  0.00000,  0.00000,  0.00000,1,   0.00,   1,1.0000
  205,   416,'2 ',   0.00370,   0.04600,   0.73000,    0.00,    0.00,    0.00,  0.00000,  0.00000,  0.00000,  0.00000,1,   0.00,   1,1.0000
  206,   207,'1 ',   0.00450,   0.03560,   0.43700,    0.00,    0.00,    0.00,  0.00000,  0.00000,  0.00000,  0.00000,1,   0.00,   1,1.0000
  206,   207,'2 ',   0.00450,   0.03560,   0.43700,    0.00,    0.00,    0.00,  0.00000,  0.00000,  0.00000,  0.00000,1,   0.00,   1,1.0000
  206,   212,'1 ',   0.00660,   0.05270,   0.64600,    0.00,    0.00,    0.00,  0.00000,  0.00000,  0.00000,  0.00000,1,   0.00,   1,1.0000
  206,   212,'2 ',   0.00660,   0.05270,   0.64600,    0.00,    0.00,    0.00,  0.00000,  0.00000,  0.00000,  0.00000,1,   0.00,   1,1.0000
  206,   215,'1 ',   0.00660,   0.05270,   0.64600,    0.00,    0.00,    0.00,  0.00000,  0.00000,  0.00000,  0.00000,1,   0.00,   1,1.0000
  206,   215,'2 ',   0.00660,   0.05270,   0.64600,    0.00,    0.00,    0.00,  0.00000,  0.00000,  0.00000,  0.00000,1,   0.00,   1,1.0000
  207,   208,'1 ',   0.00180,   0.01400,   0.17100,    0.00,    0.00,    0.00,  0.00000,  0.00000,  0.00000,  0.00000,1,   0.00,   1,1.0000
  207,   208,'2 ',   0.00180,   0.01400,   0.17100,    0.00,    0.00,    0.00,  0.00000,  0.00000,  0.00000,  0.00000,1,   0.00,   1,1.0000
  207,   209,'1 ',   0.00080,   0.00620,   0.07600,    0.00,    0.00,    0.00,  0.00000,  0.00000,  0.00000,  0.00000,1,   0.00,   1,1.0000
  208,   211,'1 ',   0.00310,   0.02480,   0.30400,    0.00,    0.00,    0.00,  0.00000,  0.00000,  0.00000,  0.00000,1,   0.00,   1,1.0000
  208,   211,'2 ',   0.00310,   0.02480,   0.30400,    0.00,    0.00,    0.00,  0.00000,  0.00000,  0.00000,  0.00000,1,   0.00,   1,1.0000
  208,   211,'3 ',   0.00310,   0.02480,   0.30400,    0.00,    0.00,    0.00,  0.00000,  0.00000,  0.00000,  0.00000,1,   0.00,   1,1.0000
  209,   212,'1 ',   0.00450,   0.03560,   0.43700,    0.00,    0.00,    0.00,  0.00000,  0.00000,  0.00000,  0.00000,1,   0.00,   1,1.0000
  210,   213,'1 ',   0.00100,   0.01450,   1.54000,    0.00,    0.00,    0.00,  0.00000,  0.00000,  0.00000,  0.00000,1,   0.00,   1,1.0000
  210,   213,'2 ',   0.00100,   0.01450,   1.54000,    0.00,    0.00,    0.00,  0.00000,  0.00000,  0.00000,  0.00000,1,   0.00,   1,1.0000
  211,   212,'1 ',   0.00140,   0.01080,   0.13300,    0.00,    0.00,    0.00,  0.00000,  0.00000,  0.00000,  0.00000,1,   0.00,   1,1.0000
  211,   212,'2 ',   0.00140,   0.01080,   0.13300,    0.00,    0.00,    0.00,  0.00000,  0.00000,  0.00000,  0.00000,1,   0.00,   1,1.0000
  211,   214,'1 ',   0.00190,   0.01550,   0.19000,    0.00,    0.00,    0.00,  0.00000,  0.00000,  0.00000,  0.00000,1,   0.00,   1,1.0000
  212,   217,'1 ',   0.00700,   0.05580,   0.68400,    0.00,    0.00,    0.00,  0.00000,  0.00000,  0.00000,  0.00000,1,   0.00,   1,1.0000
  214,   216,'1 ',   0.00100,   0.00770,   0.09500,    0.00,    0.00,    0.00,  0.00000,  0.00000,  0.00000,  0.00000,1,   0.00,   1,1.0000
  214,   217,'1 ',   0.00490,   0.03880,   0.47500,    0.00,    0.00,    0.00,  0.00000,  0.00000,  0.00000,  0.00000,1,   0.00,   1,1.0000
  215,   216,'1 ',   0.00510,   0.04030,   0.49400,    0.00,    0.00,    0.00,  0.00000,  0.00000,  0.00000,  0.00000,1,   0.00,   1,1.0000
  215,   216,'2 ',   0.00510,   0.04030,   0.49400,    0.00,    0.00,    0.00,  0.00000,  0.00000,  0.00000,  0.00000,1,   0.00,   1,1.0000
  215,   217,'1 ',   0.00720,   0.05740,   0.70300,    0.00,    0.00,    0.00,  0.00000,  0.00000,  0.00000,  0.00000,1,   0.00,   1,1.0000
  215,   217,'2 ',   0.00720,   0.05740,   0.70300,    0.00,    0.00,    0.00,  0.00000,  0.00000,  0.00000,  0.00000,1,   0.00,   1,1.0000
  216,   217,'1 ',   0.00510,   0.04030,   0.49400,    0.00,    0.00,    0.00,  0.00000,  0.00000,  0.00000,  0.00000,1,   0.00,   1,1.0000
  303,   304,'1 ',   0.00200,   0.02800,   0.74000,    0.00,    0.00,    0.00,  0.00000,  0.00000,  0.00000,  0.00000,1,   0.00,   1,1.0000
  303,   304,'2 ',   0.00200,   0.02800,   0.74000,    0.00,    0.00,    0.00,  0.00000,  0.00000,  0.00000,  0.00000,1,   0.00,   1,1.0000
  303,   305,'1 ',   0.00110,   0.01600,   1.70000,    0.00,    0.00,    0.00,  0.00000,  0.00000,  0.00000,  0.00000,1,   0.00,   1,1.0000
  303,   305,'2 ',   0.00110,   0.01600,   1.70000,    0.00,    0.00,    0.00,  0.00000,  0.00000,  0.00000,  0.00000,1,   0.00,   1,1.0000
  304,   305,'1 ',   0.00030,   0.00400,   0.42400,    0.00,    0.00,    0.00,  0.00000,  0.00000,  0.00000,  0.00000,1,   0.00,   1,1.0000
  305,   306,'1 ',   0.00020,   0.00300,   0.32000,    0.00,    0.00,    0.00,  0.00000,  0.00000,  0.00000,  0.00000,1,   0.00,   1,1.0000
  305,   307,'1 ',   0.00030,   0.00450,   0.44700,    0.00,    0.00,    0.00,  0.00000,  0.00000,  0.00000,  0.00000,1,   0.00,   1,1.0000
  305,   307,'2 ',   0.00030,   0.00450,   0.44700,    0.00,    0.00,    0.00,  0.00000,  0.00000,  0.00000,  0.00000,1,   0.00,   1,1.0000
  306,   307,'1 ',   0.00010,   0.00120,   0.12700,    0.00,    0.00,    0.00,  0.00000,  0.00000,  0.00000,  0.00000,1,   0.00,   1,1.0000
  307,   308,'1 ',   0.00230,   0.03250,   3.44500,    0.00,    0.00,    0.00,  0.00000,  0.00000,  0.00000,  0.00000,1,   0.00,   1,1.0000
  307,   308,'2 ',   0.00230,   0.03250,   3.44500,    0.00,    0.00,    0.00,  0.00000,  0.00000,  0.00000,  0.00000,1,   0.00,   1,1.0000
  309,   310,'1 ',   0.01350,   0.10695,   0.58267,    0.00,    0.00,    0.00,  0.00000,  0.00000,  0.00000,  0.00000,1,   0.00,   1,1.0000
  309,   310,'2 ',   0.01350,   0.10695,   0.58267,    0.00,    0.00,    0.00,  0.00000,  0.00000,  0.00000,  0.00000,1,   0.00,   1,1.0000
  309,   310,'3 ',   0.01350,   0.10695,   0.58267,    0.00,    0.00,    0.00,  0.00000,  0.00000,  0.00000,  0.00000,1,   0.00,   1,1.0000
  310,   311,'1 ',   0.00000,  -0.03370,   0.00000,    0.00,    0.00,    0.00,  0.00000,  0.00000,  0.00000,  0.00000,1,   0.00,   1,1.0000
  310,   311,'2 ',   0.00000,  -0.03370,   0.00000,    0.00,    0.00,    0.00,  0.00000,  0.00000,  0.00000,  0.00000,1,   0.00,   1,1.0000
  312,   313,'1 ',   0.00600,   0.04500,   0.30000,    0.00,    0.00,    0.00,  0.00000,  0.00000,  0.00000,  0.00000,1,   0.00,   1,1.0000
  312,   313,'2 ',   0.00600,   0.04500,   0.30000,    0.00,    0.00,    0.00,  0.00000,  0.00000,  0.00000,  0.00000,1,   0.00,   1,1.0000
  312,   313,'3 ',   0.00600,   0.04500,   0.30000,    0.00,    0.00,    0.00,  0.00000,  0.00000,  0.00000,  0.00000,1,   0.00,   1,1.0000
  313,   314,'1 ',   0.00100,   0.01000,   0.26000,    0.00,    0.00,    0.00,  0.00000,  0.00000,  0.00000,  0.00000,1,   0.00,   1,1.0000
  313,   314,'2 ',   0.00100,   0.01000,   0.26000,    0.00,    0.00,    0.00,  0.00000,  0.00000,  0.00000,  0.00000,1,   0.00,   1,1.0000
  315,   509,'1 ',   0.00700,   0.05000,   0.19000,    0.00,    0.00,    0.00,  0.00000,  0.00000,  0.00000,  0.00000,1,   0.00,   1,1.0000
  315,   509,'2 ',   0.00700,   0.05000,   0.19000,    0.00,    0.00,    0.00,  0.00000,  0.00000,  0.00000,  0.00000,1,   0.00,   1,1.0000
  405,   406,'1 ',   0.00390,   0.04750,   0.38100,    0.00,    0.00,    0.00,  0.00000,  0.00000,  0.00000,  0.00000,1,   0.00,   1,1.0000
  405,   406,'2 ',   0.00390,   0.04750,   0.38100,    0.00,    0.00,    0.00,  0.00000,  0.00000,  0.00000,  0.00000,1,   0.00,   1,1.0000
  405,   408,'1 ',   0.00540,   0.05000,   0.18900,    0.00,    0.00,    0.00,  0.00000,  0.00000,  0.00000,  0.00000,1,   0.00,   1,1.0000
  405,   409,'1 ',   0.01800,   0.12200,   0.79000,    0.00,    0.00,    0.00,  0.00000,  0.00000,  0.00000,  0.00000,1,   0.00,   1,1.0000
  405,   409,'2 ',   0.01800,   0.12200,   0.79000,    0.00,    0.00,    0.00,  0.00000,  0.00000,  0.00000,  0.00000,1,   0.00,   1,1.0000
  405,   409,'3 ',   0.01800,   0.12200,   0.79000,    0.00,    0.00,    0.00,  0.00000,  0.00000,  0.00000,  0.00000,1,   0.00,   1,1.0000
  406,   407,'1 ',   0.00060,   0.00760,   0.06200,    0.00,    0.00,    0.00,  0.00000,  0.00000,  0.00000,  0.00000,1,   0.00,   1,1.0000
  406,   407,'2 ',   0.00060,   0.00760,   0.06200,    0.00,    0.00,    0.00,  0.00000,  0.00000,  0.00000,  0.00000,1,   0.00,   1,1.0000
  407,   408,'1 ',   0.00420,   0.05130,   0.41200,    0.00,    0.00,    0.00,  0.00000,  0.00000,  0.00000,  0.00000,1,   0.00,   1,1.0000
  408,   410,'1 ',   0.01650,   0.19200,   0.67333,    0.00,    0.00,    0.00,  0.00000,  0.00000,  0.00000,  0.00000,1,   0.00,   1,1.0000
  408,   410,'2 ',   0.01650,   0.19200,   0.67333,    0.00,    0.00,    0.00,  0.00000,  0.00000,  0.00000,  0.00000,1,   0.00,   1,1.0000
  408,   410,'3 ',   0.01650,   0.19200,   0.67333,    0.00,    0.00,    0.00,  0.00000,  0.00000,  0.00000,  0.00000,1,   0.00,   1,1.0000
  409,   411,'1 ',   0.01030,   0.07090,   0.46000,    0.00,    0.00,    0.00,  0.00000,  0.00000,  0.00000,  0.00000,1,   0.00,   1,1.0000
  409,   411,'2 ',   0.01030,   0.07090,   0.46000,    0.00,    0.00,    0.00,  0.00000,  0.00000,  0.00000,  0.00000,1,   0.00,   1,1.0000
  410,   411,'1 ',   0.00430,   0.05320,   0.42700,    0.00,    0.00,    0.00,  0.00000,  0.00000,  0.00000,  0.00000,1,   0.00,   1,1.0000
  410,   412,'1 ',   0.00430,   0.05320,   0.42700,    0.00,    0.00,    0.00,  0.00000,  0.00000,  0.00000,  0.00000,1,   0.00,   1,1.0000
  410,   412,'2 ',   0.00430,   0.05320,   0.42700,    0.00,    0.00,    0.00,  0.00000,  0.00000,  0.00000,  0.00000,1,   0.00,   1,1.0000
  410,   412,'3 ',   0.00430,   0.05320,   0.42700,    0.00,    0.00,    0.00,  0.00000,  0.00000,  0.00000,  0.00000,1,   0.00,   1,1.0000
  410,   412,'4 ',   0.00430,   0.05320,   0.42700,    0.00,    0.00,    0.00,  0.00000,  0.00000,  0.00000,  0.00000,1,   0.00,   1,1.0000
  410,   413,'1 ',   0.00400,   0.04940,   0.40000,    0.00,    0.00,    0.00,  0.00000,  0.00000,  0.00000,  0.00000,1,   0.00,   1,1.0000
  410,   413,'2 ',   0.00400,   0.04940,   0.40000,    0.00,    0.00,    0.00,  0.00000,  0.00000,  0.00000,  0.00000,1,   0.00,   1,1.0000
  411,   412,'1 ',   0.00120,   0.01520,   0.12200,    0.00,    0.00,    0.00,  0.00000,  0.00000,  0.00000,  0.00000,1,   0.00,   1,1.0000
  411,   412,'2 ',   0.00120,   0.01520,   0.12200,    0.00,    0.00,    0.00,  0.00000,  0.00000,  0.00000,  0.00000,1,   0.00,   1,1.0000
  414,   415,'1 ',   0.00200,   0.02500,   0.39000,    0.00,    0.00,    0.00,  0.00000,  0.00000,  0.00000,  0.00000,1,   0.00,   1,1.0000
  414,   415,'2 ',   0.00200,   0.02500,   0.39000,    0.00,    0.00,    0.00,  0.00000,  0.00000,  0.00000,  0.00000,1,   0.00,   1,1.0000
  415,   416,'1 ',   0.00370,   0.04600,   0.73000,    0.00,    0.00,    0.00,  0.00000,  0.00000,  0.00000,  0.00000,1,   0.00,   1,1.0000
  415,   416,'2 ',   0.00370,   0.04600,   0.73000,    0.00,    0.00,    0.00,  0.00000,  0.00000,  0.00000,  0.00000,1,   0.00,   1,1.0000
  504,   507,'1 ',   0.02300,   0.15000,   0.56000,    0.00,    0.00,    0.00,  0.00000,  0.00000,  0.00000,  0.00000,1,   0.00,   1,1.0000
  504,   507,'2 ',   0.02300,   0.15000,   0.56000,    0.00,    0.00,    0.00,  0.00000,  0.00000,  0.00000,  0.00000,1,   0.00,   1,1.0000
  504,   508,'1 ',   0.02600,   0.01900,   0.87000,    0.00,    0.00,    0.00,  0.00000,  0.00000,  0.00000,  0.00000,1,   0.00,   1,1.0000
  504,   508,'2 ',   0.02600,   0.01900,   0.87000,    0.00,    0.00,    0.00,  0.00000,  0.00000,  0.00000,  0.00000,1,   0.00,   1,1.0000
  505,   507,'1 ',   0.00160,   0.01700,   0.03000,    0.00,    0.00,    0.00,  0.00000,  0.00000,  0.00000,  0.00000,1,   0.00,   1,1.0000
  505,   507,'2 ',   0.00160,   0.01700,   0.03000,    0.00,    0.00,    0.00,  0.00000,  0.00000,  0.00000,  0.00000,1,   0.00,   1,1.0000
  505,   508,'1 ',   0.00250,   0.02800,   0.17000,    0.00,    0.00,    0.00,  0.00000,  0.00000,  0.00000,  0.00000,1,   0.00,   1,1.0000
  506,   507,'1 ',   0.00160,   0.01700,   0.03000,    0.00,    0.00,    0.00,  0.00000,  0.00000,  0.00000,  0.00000,1,   0.00,   1,1.0000
  506,   507,'2 ',   0.00160,   0.01700,   0.03000,    0.00,    0.00,    0.00,  0.00000,  0.00000,  0.00000,  0.00000,1,   0.00,   1,1.0000
  506,   508,'1 ',   0.00300,   0.02800,   0.14000,    0.00,    0.00,    0.00,  0.00000,  0.00000,  0.00000,  0.00000,1,   0.00,   1,1.0000
  507,   508,'1 ',   0.00200,   0.01900,   0.09000,    0.00,    0.00,    0.00,  0.00000,  0.00000,  0.00000,  0.00000,1,   0.00,   1,1.0000
  507,   509,'1 ',   0.09000,   0.66000,   0.30000,    0.00,    0.00,    0.00,  0.00000,  0.00000,  0.00000,  0.00000,1,   0.00,   1,1.0000
  507,   509,'2 ',   0.09000,   0.66000,   0.30000,    0.00,    0.00,    0.00,  0.00000,  0.00000,  0.00000,  0.00000,1,   0.00,   1,1.0000
  507,   509,'3 ',   0.09000,   0.66000,   0.30000,    0.00,    0.00,    0.00,  0.00000,  0.00000,  0.00000,  0.00000,1,   0.00,   1,1.0000
  507,   509,'4 ',   0.09000,   0.66000,   0.30000,    0.00,    0.00,    0.00,  0.00000,  0.00000,  0.00000,  0.00000,1,   0.00,   1,1.0000
  507,   509,'5 ',   0.09000,   0.66000,   0.30000,    0.00,    0.00,    0.00,  0.00000,  0.00000,  0.00000,  0.00000,1,   0.00,   1,1.0000
  507,   509,'6 ',   0.09000,   0.66000,   0.30000,    0.00,    0.00,    0.00,  0.00000,  0.00000,  0.00000,  0.00000,1,   0.00,   1,1.0000
 0 / END OF BRANCH DATA, BEGIN TRANSFORMER DATA
  101,  102,    0,'1 ',1,1,1,   0.00000,   0.00000,2,'        ',1,   1,1.0000
   0.00000,   0.01800,   100.00
1.00000,   0.000,   0.000,     0.00,     0.00,     0.00, 0,     0, 1.10000, 0.90000, 1.10000, 0.90000,  33, 0, 0.00000, 0.00000
1.00000,   0.000
  201,  206,    0,'1 ',1,1,1,   0.00000,   0.00000,2,'        ',1,   1,1.0000
   0.00000,   0.00800,   100.00
1.01010,   0.000,   0.000,     0.00,     0.00,     0.00, 0,     0, 1.10000, 0.90000, 1.10000, 0.90000,  33, 0, 0.00000, 0.00000
1.00000,   0.000
  202,  209,    0,'1 ',1,1,1,   0.00000,   0.00000,2,'        ',1,   1,1.0000
   0.00000,   0.00960,   100.00
1.01010,   0.000,   0.000,     0.00,     0.00,     0.00, 0,     0, 1.10000, 0.90000, 1.10000, 0.90000,  33, 0, 0.00000, 0.00000
1.00000,   0.000
  203,  208,    0,'1 ',1,1,1,   0.00000,   0.00000,2,'        ',1,   1,1.0000
   0.00000,   0.01020,   100.00
1.01010,   0.000,   0.000,     0.00,     0.00,     0.00, 0,     0, 1.10000, 0.90000, 1.10000, 0.90000,  33, 0, 0.00000, 0.00000
1.00000,   0.000
  204,  215,    0,'1 ',1,1,1,   0.00000,   0.00000,2,'        ',1,   1,1.0000
   0.00000,   0.00800,   100.00
1.01010,   0.000,   0.000,     0.00,     0.00,     0.00, 0,     0, 1.10000, 0.90000, 1.10000, 0.90000,  33, 0, 0.00000, 0.00000
1.00000,   0.000
  209,  210,    0,'1 ',1,1,1,   0.00000,   0.00000,2,'        ',1,   1,1.0000
   0.00000,   0.02720,   100.00
0.97560,   0.000,   0.000,     0.00,     0.00,     0.00, 0,     0, 1.10000, 0.90000, 1.10000, 0.90000,  33, 0, 0.00000, 0.00000
1.00000,   0.000
  209,  210,    0,'2 ',1,1,1,   0.00000,   0.00000,2,'        ',1,   1,1.0000
   0.00000,   0.02720,   100.00
0.97560,   0.000,   0.000,     0.00,     0.00,     0.00, 0,     0, 1.10000, 0.90000, 1.10000, 0.90000,  33, 0, 0.00000, 0.00000
1.00000,   0.000
  209,  210,    0,'3 ',1,1,1,   0.00000,   0.00000,2,'        ',1,   1,1.0000
   0.00000,   0.02720,   100.00
0.97560,   0.000,   0.000,     0.00,     0.00,     0.00, 0,     0, 1.10000, 0.90000, 1.10000, 0.90000,  33, 0, 0.00000, 0.00000
1.00000,   0.000
  209,  210,    0,'4 ',1,1,1,   0.00000,   0.00000,2,'        ',1,   1,1.0000
   0.00000,   0.02720,   100.00
0.97560,   0.000,   0.000,     0.00,     0.00,     0.00, 0,     0, 1.10000, 0.90000, 1.10000, 0.90000,  33, 0, 0.00000, 0.00000
1.00000,   0.000
  213,  214,    0,'1 ',1,1,1,   0.00000,   0.00000,2,'        ',1,   1,1.0000
   0.00000,   0.02720,   100.00
1.00000,   0.000,   0.000,     0.00,     0.00,     0.00, 0,     0, 1.10000, 0.90000, 1.10000, 0.90000,  33, 0, 0.00000, 0.00000
1.00000,   0.000
  213,  214,    0,'2 ',1,1,1,   0.00000,   0.00000,2,'        ',1,   1,1.0000
   0.00000,   0.02720,   100.00
1.00000,   0.000,   0.000,     0.00,     0.00,     0.00, 0,     0, 1.10000, 0.90000, 1.10000, 0.90000,  33, 0, 0.00000, 0.00000
1.00000,   0.000
  213,  214,    0,'3 ',1,1,1,   0.00000,   0.00000,2,'        ',1,   1,1.0000
   0.00000,   0.02720,   100.00
1.00000,   0.000,   0.000,     0.00,     0.00,     0.00, 0,     0, 1.10000, 0.90000, 1.10000, 0.90000,  33, 0, 0.00000, 0.00000
1.00000,   0.000
  213,  214,    0,'4 ',1,1,1,   0.00000,   0.00000,2,'        ',1,   1,1.0000
   0.00000,   0.02720,   100.00
1.00000,   0.000,   0.000,     0.00,     0.00,     0.00, 0,     0, 1.10000, 0.90000, 1.10000, 0.90000,  33, 0, 0.00000, 0.00000
1.00000,   0.000
  301,  303,    0,'1 ',1,1,1,   0.00000,   0.00000,2,'        ',1,   1,1.0000
   0.00000,   0.00400,   100.00
1.00000,   0.000,   0.000,     0.00,     0.00,     0.00, 0,     0, 1.10000, 0.90000, 1.10000, 0.90000,  33, 0, 0.00000, 0.00000
1.00000,   0.000
  302,  312,    0,'1 ',1,1,1,   0.00000,   0.00000,2,'        ',1,   1,1.0000
   0.00000,   0.01690,   100.00
1.00000,   0.000,   0.000,     0.00,     0.00,     0.00, 0,     0, 1.10000, 0.90000, 1.10000, 0.90000,  33, 0, 0.00000, 0.00000
1.00000,   0.000
  304,  313,    0,'1 ',1,1,1,   0.00000,   0.00000,2,'        ',1,   1,1.0000
   0.00000,   0.03200,   100.00
0.96150,   0.000,   0.000,     0.00,     0.00,     0.00, 0,     0, 1.10000, 0.90000, 1.10000, 0.90000,  33, 0, 0.00000, 0.00000
1.00000,   0.000
  304,  313,    0,'2 ',1,1,1,   0.00000,   0.00000,2,'        ',1,   1,1.0000
   0.00000,   0.03200,   100.00
0.96150,   0.000,   0.000,     0.00,     0.00,     0.00, 0,     0, 1.10000, 0.90000, 1.10000, 0.90000,  33, 0, 0.00000, 0.00000
1.00000,   0.000
  305,  311,    0,'1 ',1,1,1,   0.00000,   0.00000,2,'        ',1,   1,1.0000
   0.00000,   0.03600,   100.00
1.00000,   0.000,   0.000,     0.00,     0.00,     0.00, 0,     0, 1.10000, 0.90000, 1.10000, 0.90000,  33, 0, 0.00000, 0.00000
1.00000,   0.000
  305,  311,    0,'2 ',1,1,1,   0.00000,   0.00000,2,'        ',1,   1,1.0000
   0.00000,   0.03600,   100.00
1.00000,   0.000,   0.000,     0.00,     0.00,     0.00, 0,     0, 1.10000, 0.90000, 1.10000, 0.90000,  33, 0, 0.00000, 0.00000
1.00000,   0.000
  305,  311,    0,'3 ',1,1,1,   0.00000,   0.00000,2,'        ',1,   1,1.0000
   0.00000,   0.03600,   100.00
1.00000,   0.000,   0.000,     0.00,     0.00,     0.00, 0,     0, 1.10000, 0.90000, 1.10000, 0.90000,  33, 0, 0.00000, 0.00000
1.00000,   0.000
  305,  314,    0,'1 ',1,1,1,   0.00000,   0.00000,2,'        ',1,   1,1.0000
   0.00000,   0.02400,   100.00
1.00000,   0.000,   0.000,     0.00,     0.00,     0.00, 0,     0, 1.10000, 0.90000, 1.10000, 0.90000,  33, 0, 0.00000, 0.00000
1.00000,   0.000
  305,  314,    0,'2 ',1,1,1,   0.00000,   0.00000,2,'        ',1,   1,1.0000
   0.00000,   0.02400,   100.00
1.00000,   0.000,   0.000,     0.00,     0.00,     0.00, 0,     0, 1.10000, 0.90000, 1.10000, 0.90000,  33, 0, 0.00000, 0.00000
1.00000,   0.000
  308,  315,    0,'1 ',1,1,1,   0.00000,   0.00000,2,'        ',1,   1,1.0000
   0.00000,   0.02700,   100.00
1.00000,   0.000,   0.000,     0.00,     0.00,     0.00, 0,     0, 1.10000, 0.90000, 1.10000, 0.90000,  33, 0, 0.00000, 0.00000
1.00000,   0.000
  308,  315,    0,'2 ',1,1,1,   0.00000,   0.00000,2,'        ',1,   1,1.0000
   0.00000,   0.02700,   100.00
1.00000,   0.000,   0.000,     0.00,     0.00,     0.00, 0,     0, 1.10000, 0.90000, 1.10000, 0.90000,  33, 0, 0.00000, 0.00000
1.00000,   0.000
  401,  410,    0,'1 ',1,1,1,   0.00000,   0.00000,2,'        ',1,   1,1.0000
   0.00000,   0.01127,   100.00
1.01010,   0.000,   0.000,     0.00,     0.00,     0.00, 0,     0, 1.10000, 0.90000, 1.10000, 0.90000,  33, 0, 0.00000, 0.00000
1.00000,   0.000
  402,  408,    0,'1 ',1,1,1,   0.00000,   0.00000,2,'        ',1,   1,1.0000
   0.00000,   0.01700,   100.00
1.00000,   0.000,   0.000,     0.00,     0.00,     0.00, 0,     0, 1.10000, 0.90000, 1.10000, 0.90000,  33, 0, 0.00000, 0.00000
1.00000,   0.000
  403,  407,    0,'1 ',1,1,1,   0.00000,   0.00000,2,'        ',1,   1,1.0000
   0.00000,   0.01690,   100.00
1.00000,   0.000,   0.000,     0.00,     0.00,     0.00, 0,     0, 1.10000, 0.90000, 1.10000, 0.90000,  33, 0, 0.00000, 0.00000
1.00000,   0.000
  404,  405,    0,'1 ',1,1,1,   0.00000,   0.00000,2,'        ',1,   1,1.0000
   0.00000,   0.01700,   100.00
1.00000,   0.000,   0.000,     0.00,     0.00,     0.00, 0,     0, 1.10000, 0.90000, 1.10000, 0.90000,  33, 0, 0.00000, 0.00000
1.00000,   0.000
  413,  414,    0,'1 ',1,1,1,   0.00000,   0.00000,2,'        ',1,   1,1.0000
   0.00000,   0.00800,   100.00
1.00000,   0.000,   0.000,     0.00,     0.00,     0.00, 0,     0, 1.10000, 0.90000, 1.10000, 0.90000,  33, 0, 0.00000, 0.00000
0.97090,   0.000
  413,  414,    0,'2 ',1,1,1,   0.00000,   0.00000,2,'        ',1,   1,1.0000
   0.00000,   0.00800,   100.00
1.00000,   0.000,   0.000,     0.00,     0.00,     0.00, 0,     0, 1.10000, 0.90000, 1.10000, 0.90000,  33, 0, 0.00000, 0.00000
0.97090,   0.000
  413,  414,    0,'3 ',1,1,1,   0.00000,   0.00000,2,'        ',1,   1,1.0000
   0.00000,   0.00800,   100.00
1.00000,   0.000,   0.000,     0.00,     0.00,     0.00, 0,     0, 1.10000, 0.90000, 1.10000, 0.90000,  33, 0, 0.00000, 0.00000
0.97090,   0.000
  501,  504,    0,'1 ',1,1,1,   0.00000,   0.00000,2,'        ',1,   1,1.0000
   0.00000,   0.05100,   100.00
1.01520,   0.000,   0.000,     0.00,     0.00,     0.00, 0,     0, 1.10000, 0.90000, 1.10000, 0.90000,  33, 0, 0.00000, 0.00000
1.00000,   0.000
  502,  505,    0,'1 ',1,1,1,   0.00000,   0.00000,2,'        ',1,   1,1.0000
   0.00000,   0.01600,   100.00
1.02040,   0.000,   0.000,     0.00,     0.00,     0.00, 0,     0, 1.10000, 0.90000, 1.10000, 0.90000,  33, 0, 0.00000, 0.00000
1.00000,   0.000
  503,  506,    0,'1 ',1,1,1,   0.00000,   0.00000,2,'        ',1,   1,1.0000
   0.00000,   0.05000,   100.00
1.02040,   0.000,   0.000,     0.00,     0.00,     0.00, 0,     0, 1.10000, 0.90000, 1.10000, 0.90000,  33, 0, 0.00000, 0.00000
1.00000,   0.000
 0 / END OF TRANSFORMER DATA, BEGIN AREA DATA
 0 / END OF AREA DATA, BEGIN TWO-TERMINAL DC DATA
 0 / END OF TWO-TERMINAL DC DATA, BEGIN VSC DC LINE DATA
 0 / END OF VSC DC LINE DATA, BEGIN SWITCHED SHUNT DATA
 0 / END OF SWITCHED SHUNT DATA, BEGIN IMPEDANCE CORRECTION DATA
 0 / END OF IMPEDANCE CORRECTION DATA, BEGIN MULTI-TERMINAL DC DATA
 0 / END OF MULTI-TERMINAL DC DATA, BEGIN MULTI-SECTION LINE DATA
 0 / END OF MULTI-SECTION LINE DATA, BEGIN ZONE DATA
 0 / END OF ZONE DATA, BEGIN INTER-AREA TRANSFER DATA
 0 / END OF INTER-AREA TRANSFER DATA, BEGIN OWNER DATA
 0 / END OF OWNER DATA, BEGIN FACTS DEVICE DATA
 0 / END OF FACTS DEVICE DATA
